
---------- Begin Simulation Statistics ----------
sim_seconds                                  0.183905                       # Number of seconds simulated
sim_ticks                                183905472000                       # Number of ticks simulated
final_tick                               183905472000                       # Number of ticks from beginning of simulation (restored from checkpoints and never reset)
sim_freq                                 1000000000000                       # Frequency of simulated ticks
host_inst_rate                                 776178                       # Simulator instruction rate (inst/s)
host_op_rate                                  1273314                       # Simulator op (including micro ops) rate (op/s)
host_tick_rate                             1536851610                       # Simulator tick rate (ticks/s)
host_mem_usage                                 651204                       # Number of bytes of host memory used
host_seconds                                   119.66                       # Real time elapsed on the host
sim_insts                                    92880370                       # Number of instructions simulated
sim_ops                                     152369604                       # Number of ops (including micro ops) simulated
system.voltage_domain.voltage                       1                       # Voltage in Volts
system.clk_domain.clock                          1000                       # Clock period in ticks
system.mem_ctrls.pwrStateResidencyTicks::UNDEFINED 183905472000                       # Cumulative time (in ticks) in various power states
system.mem_ctrls.bytes_read::cpu.inst           22592                       # Number of bytes read from this memory
system.mem_ctrls.bytes_read::cpu.data          814592                       # Number of bytes read from this memory
system.mem_ctrls.bytes_read::total             837184                       # Number of bytes read from this memory
system.mem_ctrls.bytes_inst_read::cpu.inst        22592                       # Number of instructions bytes read from this memory
system.mem_ctrls.bytes_inst_read::total         22592                       # Number of instructions bytes read from this memory
system.mem_ctrls.num_reads::cpu.inst              353                       # Number of read requests responded to by this memory
system.mem_ctrls.num_reads::cpu.data            12728                       # Number of read requests responded to by this memory
system.mem_ctrls.num_reads::total               13081                       # Number of read requests responded to by this memory
system.mem_ctrls.bw_read::cpu.inst             122846                       # Total read bandwidth from this memory (bytes/s)
system.mem_ctrls.bw_read::cpu.data            4429406                       # Total read bandwidth from this memory (bytes/s)
system.mem_ctrls.bw_read::total               4552252                       # Total read bandwidth from this memory (bytes/s)
system.mem_ctrls.bw_inst_read::cpu.inst        122846                       # Instruction read bandwidth from this memory (bytes/s)
system.mem_ctrls.bw_inst_read::total           122846                       # Instruction read bandwidth from this memory (bytes/s)
system.mem_ctrls.bw_total::cpu.inst            122846                       # Total bandwidth to/from this memory (bytes/s)
system.mem_ctrls.bw_total::cpu.data           4429406                       # Total bandwidth to/from this memory (bytes/s)
system.mem_ctrls.bw_total::total              4552252                       # Total bandwidth to/from this memory (bytes/s)
system.pwrStateResidencyTicks::UNDEFINED 183905472000                       # Cumulative time (in ticks) in various power states
system.cpu_voltage_domain.voltage                   1                       # Voltage in Volts
system.cpu_clk_domain.clock                       500                       # Clock period in ticks
system.cpu.dtb.walker.pwrStateResidencyTicks::UNDEFINED 183905472000                       # Cumulative time (in ticks) in various power states
system.cpu.dtb.rdAccesses                    43764297                       # TLB accesses on read requests
system.cpu.dtb.wrAccesses                    12054208                       # TLB accesses on write requests
system.cpu.dtb.rdMisses                           715                       # TLB misses on read requests
system.cpu.dtb.wrMisses                           203                       # TLB misses on write requests
system.cpu.apic_clk_domain.clock                 8000                       # Clock period in ticks
system.cpu.interrupts.pwrStateResidencyTicks::UNDEFINED 183905472000                       # Cumulative time (in ticks) in various power states
system.cpu.itb.walker.pwrStateResidencyTicks::UNDEFINED 183905472000                       # Cumulative time (in ticks) in various power states
system.cpu.itb.rdAccesses                           0                       # TLB accesses on read requests
system.cpu.itb.wrAccesses                   124385631                       # TLB accesses on write requests
system.cpu.itb.rdMisses                             0                       # TLB misses on read requests
system.cpu.itb.wrMisses                            37                       # TLB misses on write requests
system.cpu.workload.numSyscalls                     9                       # Number of system calls
system.cpu.pwrStateResidencyTicks::ON    183905472000                       # Cumulative time (in ticks) in various power states
system.cpu.numCycles                        367810944                       # number of cpu cycles simulated
system.cpu.numWorkItemsStarted                      0                       # number of work items this cpu started
system.cpu.numWorkItemsCompleted                    0                       # number of work items this cpu completed
system.cpu.committedInsts                    92880370                       # Number of instructions committed
system.cpu.committedOps                     152369604                       # Number of ops (including micro ops) committed
system.cpu.num_int_alu_accesses             151350718                       # Number of integer alu accesses
system.cpu.num_fp_alu_accesses                   1943                       # Number of float alu accesses
system.cpu.num_vec_alu_accesses                     0                       # Number of vector alu accesses
system.cpu.num_func_calls                     1891168                       # number of times a function call or return occured
system.cpu.num_conditional_control_insts      8772469                       # number of instructions that are conditional controls
system.cpu.num_int_insts                    151350718                       # number of integer instructions
system.cpu.num_fp_insts                          1943                       # number of float instructions
system.cpu.num_vec_insts                            0                       # number of vector instructions
system.cpu.num_int_register_reads           340121087                       # number of times the integer registers were read
system.cpu.num_int_register_writes          131933761                       # number of times the integer registers were written
system.cpu.num_fp_register_reads                 3767                       # number of times the floating registers were read
system.cpu.num_fp_register_writes                1480                       # number of times the floating registers were written
system.cpu.num_vec_register_reads                   0                       # number of times the vector registers were read
system.cpu.num_vec_register_writes                  0                       # number of times the vector registers were written
system.cpu.num_cc_register_reads             56809838                       # number of times the CC registers were read
system.cpu.num_cc_register_writes            52010949                       # number of times the CC registers were written
system.cpu.num_mem_refs                      55818502                       # number of memory refs
system.cpu.num_load_insts                    43764294                       # Number of load instructions
system.cpu.num_store_insts                   12054208                       # Number of store instructions
system.cpu.num_idle_cycles                          0                       # Number of idle cycles
system.cpu.num_busy_cycles                  367810944                       # Number of busy cycles
system.cpu.not_idle_fraction                        1                       # Percentage of non-idle cycles
system.cpu.idle_fraction                            0                       # Percentage of idle cycles
system.cpu.Branches                          11500750                       # Number of branches fetched
system.cpu.op_class::No_OpClass                326540      0.21%      0.21% # Class of executed instruction
system.cpu.op_class::IntAlu                  94317828     61.90%     62.11% # Class of executed instruction
system.cpu.op_class::IntMult                        4      0.00%     62.11% # Class of executed instruction
system.cpu.op_class::IntDiv                   1905770      1.25%     63.37% # Class of executed instruction
system.cpu.op_class::FloatAdd                      10      0.00%     63.37% # Class of executed instruction
system.cpu.op_class::FloatCmp                       0      0.00%     63.37% # Class of executed instruction
system.cpu.op_class::FloatCvt                       0      0.00%     63.37% # Class of executed instruction
system.cpu.op_class::FloatMult                      0      0.00%     63.37% # Class of executed instruction
system.cpu.op_class::FloatMultAcc                   0      0.00%     63.37% # Class of executed instruction
system.cpu.op_class::FloatDiv                       0      0.00%     63.37% # Class of executed instruction
system.cpu.op_class::FloatMisc                      0      0.00%     63.37% # Class of executed instruction
system.cpu.op_class::FloatSqrt                      0      0.00%     63.37% # Class of executed instruction
system.cpu.op_class::SimdAdd                      374      0.00%     63.37% # Class of executed instruction
system.cpu.op_class::SimdAddAcc                     0      0.00%     63.37% # Class of executed instruction
system.cpu.op_class::SimdAlu                       68      0.00%     63.37% # Class of executed instruction
system.cpu.op_class::SimdCmp                        0      0.00%     63.37% # Class of executed instruction
system.cpu.op_class::SimdCvt                      108      0.00%     63.37% # Class of executed instruction
system.cpu.op_class::SimdMisc                     214      0.00%     63.37% # Class of executed instruction
system.cpu.op_class::SimdMult                       0      0.00%     63.37% # Class of executed instruction
system.cpu.op_class::SimdMultAcc                    0      0.00%     63.37% # Class of executed instruction
system.cpu.op_class::SimdShift                    186      0.00%     63.37% # Class of executed instruction
system.cpu.op_class::SimdShiftAcc                   0      0.00%     63.37% # Class of executed instruction
system.cpu.op_class::SimdSqrt                       0      0.00%     63.37% # Class of executed instruction
system.cpu.op_class::SimdFloatAdd                   0      0.00%     63.37% # Class of executed instruction
system.cpu.op_class::SimdFloatAlu                   0      0.00%     63.37% # Class of executed instruction
system.cpu.op_class::SimdFloatCmp                   0      0.00%     63.37% # Class of executed instruction
system.cpu.op_class::SimdFloatCvt                   0      0.00%     63.37% # Class of executed instruction
system.cpu.op_class::SimdFloatDiv                   0      0.00%     63.37% # Class of executed instruction
system.cpu.op_class::SimdFloatMisc                  0      0.00%     63.37% # Class of executed instruction
system.cpu.op_class::SimdFloatMult                  0      0.00%     63.37% # Class of executed instruction
system.cpu.op_class::SimdFloatMultAcc               0      0.00%     63.37% # Class of executed instruction
system.cpu.op_class::SimdFloatSqrt                  0      0.00%     63.37% # Class of executed instruction
system.cpu.op_class::MemRead                 43764238     28.72%     92.09% # Class of executed instruction
system.cpu.op_class::MemWrite                12053793      7.91%    100.00% # Class of executed instruction
system.cpu.op_class::FloatMemRead                  56      0.00%    100.00% # Class of executed instruction
system.cpu.op_class::FloatMemWrite                415      0.00%    100.00% # Class of executed instruction
system.cpu.op_class::IprAccess                      0      0.00%    100.00% # Class of executed instruction
system.cpu.op_class::InstPrefetch                   0      0.00%    100.00% # Class of executed instruction
system.cpu.op_class::total                  152369604                       # Class of executed instruction
system.cpu.dcache.tags.pwrStateResidencyTicks::UNDEFINED 183905472000                       # Cumulative time (in ticks) in various power states
system.cpu.dcache.tags.tagsinuse           511.067451                       # Cycle average of tags in use
system.cpu.dcache.tags.total_refs            55818505                       # Total number of references to valid blocks.
system.cpu.dcache.tags.sampled_refs            108260                       # Sample count of references to valid blocks.
system.cpu.dcache.tags.avg_refs            515.596758                       # Average number of references to valid blocks.
system.cpu.dcache.tags.warmup_cycle            759000                       # Cycle when the warmup percentage was hit.
system.cpu.dcache.tags.occ_blocks::cpu.data   511.067451                       # Average occupied blocks per requestor
system.cpu.dcache.tags.occ_percent::cpu.data     0.998179                       # Average percentage of cache occupancy
system.cpu.dcache.tags.occ_percent::total     0.998179                       # Average percentage of cache occupancy
system.cpu.dcache.tags.occ_task_id_blocks::1024          512                       # Occupied blocks per task id
system.cpu.dcache.tags.age_task_id_blocks_1024::0           28                       # Occupied blocks per task id
system.cpu.dcache.tags.age_task_id_blocks_1024::2           90                       # Occupied blocks per task id
system.cpu.dcache.tags.age_task_id_blocks_1024::3          380                       # Occupied blocks per task id
system.cpu.dcache.tags.age_task_id_blocks_1024::4           14                       # Occupied blocks per task id
system.cpu.dcache.tags.occ_task_id_percent::1024            1                       # Percentage of cache occupancy per task id
system.cpu.dcache.tags.tag_accesses         111745270                       # Number of tag accesses
system.cpu.dcache.tags.data_accesses        111745270                       # Number of data accesses
system.cpu.dcache.pwrStateResidencyTicks::UNDEFINED 183905472000                       # Cumulative time (in ticks) in various power states
system.cpu.dcache.ReadReq_hits::cpu.data     43669423                       # number of ReadReq hits
system.cpu.dcache.ReadReq_hits::total        43669423                       # number of ReadReq hits
system.cpu.dcache.WriteReq_hits::cpu.data     11986900                       # number of WriteReq hits
system.cpu.dcache.WriteReq_hits::total       11986900                       # number of WriteReq hits
system.cpu.dcache.demand_hits::cpu.data      55656323                       # number of demand (read+write) hits
system.cpu.dcache.demand_hits::total         55656323                       # number of demand (read+write) hits
system.cpu.dcache.overall_hits::cpu.data     55656323                       # number of overall hits
system.cpu.dcache.overall_hits::total        55656323                       # number of overall hits
system.cpu.dcache.ReadReq_misses::cpu.data        94874                       # number of ReadReq misses
system.cpu.dcache.ReadReq_misses::total         94874                       # number of ReadReq misses
system.cpu.dcache.WriteReq_misses::cpu.data        67308                       # number of WriteReq misses
system.cpu.dcache.WriteReq_misses::total        67308                       # number of WriteReq misses
system.cpu.dcache.demand_misses::cpu.data       162182                       # number of demand (read+write) misses
system.cpu.dcache.demand_misses::total         162182                       # number of demand (read+write) misses
system.cpu.dcache.overall_misses::cpu.data       162182                       # number of overall misses
system.cpu.dcache.overall_misses::total        162182                       # number of overall misses
system.cpu.dcache.ReadReq_miss_latency::cpu.data   2478714000                       # number of ReadReq miss cycles
system.cpu.dcache.ReadReq_miss_latency::total   2478714000                       # number of ReadReq miss cycles
system.cpu.dcache.WriteReq_miss_latency::cpu.data   1331411000                       # number of WriteReq miss cycles
system.cpu.dcache.WriteReq_miss_latency::total   1331411000                       # number of WriteReq miss cycles
system.cpu.dcache.demand_miss_latency::cpu.data   3810125000                       # number of demand (read+write) miss cycles
system.cpu.dcache.demand_miss_latency::total   3810125000                       # number of demand (read+write) miss cycles
system.cpu.dcache.overall_miss_latency::cpu.data   3810125000                       # number of overall miss cycles
system.cpu.dcache.overall_miss_latency::total   3810125000                       # number of overall miss cycles
system.cpu.dcache.ReadReq_accesses::cpu.data     43764297                       # number of ReadReq accesses(hits+misses)
system.cpu.dcache.ReadReq_accesses::total     43764297                       # number of ReadReq accesses(hits+misses)
system.cpu.dcache.WriteReq_accesses::cpu.data     12054208                       # number of WriteReq accesses(hits+misses)
system.cpu.dcache.WriteReq_accesses::total     12054208                       # number of WriteReq accesses(hits+misses)
system.cpu.dcache.demand_accesses::cpu.data     55818505                       # number of demand (read+write) accesses
system.cpu.dcache.demand_accesses::total     55818505                       # number of demand (read+write) accesses
system.cpu.dcache.overall_accesses::cpu.data     55818505                       # number of overall (read+write) accesses
system.cpu.dcache.overall_accesses::total     55818505                       # number of overall (read+write) accesses
system.cpu.dcache.ReadReq_miss_rate::cpu.data     0.002168                       # miss rate for ReadReq accesses
system.cpu.dcache.ReadReq_miss_rate::total     0.002168                       # miss rate for ReadReq accesses
system.cpu.dcache.WriteReq_miss_rate::cpu.data     0.005584                       # miss rate for WriteReq accesses
system.cpu.dcache.WriteReq_miss_rate::total     0.005584                       # miss rate for WriteReq accesses
system.cpu.dcache.demand_miss_rate::cpu.data     0.002906                       # miss rate for demand accesses
system.cpu.dcache.demand_miss_rate::total     0.002906                       # miss rate for demand accesses
system.cpu.dcache.overall_miss_rate::cpu.data     0.002906                       # miss rate for overall accesses
system.cpu.dcache.overall_miss_rate::total     0.002906                       # miss rate for overall accesses
system.cpu.dcache.ReadReq_avg_miss_latency::cpu.data 26126.378144                       # average ReadReq miss latency
system.cpu.dcache.ReadReq_avg_miss_latency::total 26126.378144                       # average ReadReq miss latency
system.cpu.dcache.WriteReq_avg_miss_latency::cpu.data 19780.873002                       # average WriteReq miss latency
system.cpu.dcache.WriteReq_avg_miss_latency::total 19780.873002                       # average WriteReq miss latency
system.cpu.dcache.demand_avg_miss_latency::cpu.data 23492.896869                       # average overall miss latency
system.cpu.dcache.demand_avg_miss_latency::total 23492.896869                       # average overall miss latency
system.cpu.dcache.overall_avg_miss_latency::cpu.data 23492.896869                       # average overall miss latency
system.cpu.dcache.overall_avg_miss_latency::total 23492.896869                       # average overall miss latency
system.cpu.dcache.blocked_cycles::no_mshrs            0                       # number of cycles access was blocked
system.cpu.dcache.blocked_cycles::no_targets            0                       # number of cycles access was blocked
system.cpu.dcache.blocked::no_mshrs                 0                       # number of cycles access was blocked
system.cpu.dcache.blocked::no_targets               0                       # number of cycles access was blocked
system.cpu.dcache.avg_blocked_cycles::no_mshrs          nan                       # average number of cycles each access was blocked
system.cpu.dcache.avg_blocked_cycles::no_targets          nan                       # average number of cycles each access was blocked
system.cpu.dcache.writebacks::writebacks         9424                       # number of writebacks
system.cpu.dcache.writebacks::total              9424                       # number of writebacks
system.cpu.dcache.ReadReq_mshr_misses::cpu.data        94874                       # number of ReadReq MSHR misses
system.cpu.dcache.ReadReq_mshr_misses::total        94874                       # number of ReadReq MSHR misses
system.cpu.dcache.WriteReq_mshr_misses::cpu.data        67308                       # number of WriteReq MSHR misses
system.cpu.dcache.WriteReq_mshr_misses::total        67308                       # number of WriteReq MSHR misses
system.cpu.dcache.demand_mshr_misses::cpu.data       162182                       # number of demand (read+write) MSHR misses
system.cpu.dcache.demand_mshr_misses::total       162182                       # number of demand (read+write) MSHR misses
system.cpu.dcache.overall_mshr_misses::cpu.data       162182                       # number of overall MSHR misses
system.cpu.dcache.overall_mshr_misses::total       162182                       # number of overall MSHR misses
system.cpu.dcache.ReadReq_mshr_miss_latency::cpu.data   2383840000                       # number of ReadReq MSHR miss cycles
system.cpu.dcache.ReadReq_mshr_miss_latency::total   2383840000                       # number of ReadReq MSHR miss cycles
system.cpu.dcache.WriteReq_mshr_miss_latency::cpu.data   1264103000                       # number of WriteReq MSHR miss cycles
system.cpu.dcache.WriteReq_mshr_miss_latency::total   1264103000                       # number of WriteReq MSHR miss cycles
system.cpu.dcache.demand_mshr_miss_latency::cpu.data   3647943000                       # number of demand (read+write) MSHR miss cycles
system.cpu.dcache.demand_mshr_miss_latency::total   3647943000                       # number of demand (read+write) MSHR miss cycles
system.cpu.dcache.overall_mshr_miss_latency::cpu.data   3647943000                       # number of overall MSHR miss cycles
system.cpu.dcache.overall_mshr_miss_latency::total   3647943000                       # number of overall MSHR miss cycles
system.cpu.dcache.ReadReq_mshr_miss_rate::cpu.data     0.002168                       # mshr miss rate for ReadReq accesses
system.cpu.dcache.ReadReq_mshr_miss_rate::total     0.002168                       # mshr miss rate for ReadReq accesses
system.cpu.dcache.WriteReq_mshr_miss_rate::cpu.data     0.005584                       # mshr miss rate for WriteReq accesses
system.cpu.dcache.WriteReq_mshr_miss_rate::total     0.005584                       # mshr miss rate for WriteReq accesses
system.cpu.dcache.demand_mshr_miss_rate::cpu.data     0.002906                       # mshr miss rate for demand accesses
system.cpu.dcache.demand_mshr_miss_rate::total     0.002906                       # mshr miss rate for demand accesses
system.cpu.dcache.overall_mshr_miss_rate::cpu.data     0.002906                       # mshr miss rate for overall accesses
system.cpu.dcache.overall_mshr_miss_rate::total     0.002906                       # mshr miss rate for overall accesses
system.cpu.dcache.ReadReq_avg_mshr_miss_latency::cpu.data 25126.378144                       # average ReadReq mshr miss latency
system.cpu.dcache.ReadReq_avg_mshr_miss_latency::total 25126.378144                       # average ReadReq mshr miss latency
system.cpu.dcache.WriteReq_avg_mshr_miss_latency::cpu.data 18780.873002                       # average WriteReq mshr miss latency
system.cpu.dcache.WriteReq_avg_mshr_miss_latency::total 18780.873002                       # average WriteReq mshr miss latency
system.cpu.dcache.demand_avg_mshr_miss_latency::cpu.data 22492.896869                       # average overall mshr miss latency
system.cpu.dcache.demand_avg_mshr_miss_latency::total 22492.896869                       # average overall mshr miss latency
system.cpu.dcache.overall_avg_mshr_miss_latency::cpu.data 22492.896869                       # average overall mshr miss latency
system.cpu.dcache.overall_avg_mshr_miss_latency::total 22492.896869                       # average overall mshr miss latency
system.cpu.dcache.replacements                 107748                       # number of replacements
system.cpu.dtb_walker_cache.tags.pwrStateResidencyTicks::UNDEFINED 183905472000                       # Cumulative time (in ticks) in various power states
system.cpu.dtb_walker_cache.tags.tagsinuse            0                       # Cycle average of tags in use
system.cpu.dtb_walker_cache.tags.total_refs            0                       # Total number of references to valid blocks.
system.cpu.dtb_walker_cache.tags.sampled_refs            0                       # Sample count of references to valid blocks.
system.cpu.dtb_walker_cache.tags.avg_refs          nan                       # Average number of references to valid blocks.
system.cpu.dtb_walker_cache.tags.warmup_cycle            0                       # Cycle when the warmup percentage was hit.
system.cpu.dtb_walker_cache.tags.tag_accesses            0                       # Number of tag accesses
system.cpu.dtb_walker_cache.tags.data_accesses            0                       # Number of data accesses
system.cpu.dtb_walker_cache.pwrStateResidencyTicks::UNDEFINED 183905472000                       # Cumulative time (in ticks) in various power states
system.cpu.dtb_walker_cache.blocked_cycles::no_mshrs            0                       # number of cycles access was blocked
system.cpu.dtb_walker_cache.blocked_cycles::no_targets            0                       # number of cycles access was blocked
system.cpu.dtb_walker_cache.blocked::no_mshrs            0                       # number of cycles access was blocked
system.cpu.dtb_walker_cache.blocked::no_targets            0                       # number of cycles access was blocked
system.cpu.dtb_walker_cache.avg_blocked_cycles::no_mshrs          nan                       # average number of cycles each access was blocked
system.cpu.dtb_walker_cache.avg_blocked_cycles::no_targets          nan                       # average number of cycles each access was blocked
system.cpu.dtb_walker_cache.replacements            0                       # number of replacements
system.cpu.icache.tags.pwrStateResidencyTicks::UNDEFINED 183905472000                       # Cumulative time (in ticks) in various power states
system.cpu.icache.tags.tagsinuse           280.401504                       # Cycle average of tags in use
system.cpu.icache.tags.total_refs           124385631                       # Total number of references to valid blocks.
system.cpu.icache.tags.sampled_refs               353                       # Sample count of references to valid blocks.
system.cpu.icache.tags.avg_refs          352367.226629                       # Average number of references to valid blocks.
system.cpu.icache.tags.warmup_cycle            439000                       # Cycle when the warmup percentage was hit.
system.cpu.icache.tags.occ_blocks::cpu.inst   280.401504                       # Average occupied blocks per requestor
system.cpu.icache.tags.occ_percent::cpu.inst     0.547659                       # Average percentage of cache occupancy
system.cpu.icache.tags.occ_percent::total     0.547659                       # Average percentage of cache occupancy
system.cpu.icache.tags.occ_task_id_blocks::1024          310                       # Occupied blocks per task id
system.cpu.icache.tags.age_task_id_blocks_1024::0           38                       # Occupied blocks per task id
system.cpu.icache.tags.age_task_id_blocks_1024::4          272                       # Occupied blocks per task id
system.cpu.icache.tags.occ_task_id_percent::1024     0.605469                       # Percentage of cache occupancy per task id
system.cpu.icache.tags.tag_accesses         248771615                       # Number of tag accesses
system.cpu.icache.tags.data_accesses        248771615                       # Number of data accesses
system.cpu.icache.pwrStateResidencyTicks::UNDEFINED 183905472000                       # Cumulative time (in ticks) in various power states
system.cpu.icache.ReadReq_hits::cpu.inst    124385278                       # number of ReadReq hits
system.cpu.icache.ReadReq_hits::total       124385278                       # number of ReadReq hits
system.cpu.icache.demand_hits::cpu.inst     124385278                       # number of demand (read+write) hits
system.cpu.icache.demand_hits::total        124385278                       # number of demand (read+write) hits
system.cpu.icache.overall_hits::cpu.inst    124385278                       # number of overall hits
system.cpu.icache.overall_hits::total       124385278                       # number of overall hits
system.cpu.icache.ReadReq_misses::cpu.inst          353                       # number of ReadReq misses
system.cpu.icache.ReadReq_misses::total           353                       # number of ReadReq misses
system.cpu.icache.demand_misses::cpu.inst          353                       # number of demand (read+write) misses
system.cpu.icache.demand_misses::total            353                       # number of demand (read+write) misses
system.cpu.icache.overall_misses::cpu.inst          353                       # number of overall misses
system.cpu.icache.overall_misses::total           353                       # number of overall misses
system.cpu.icache.ReadReq_miss_latency::cpu.inst     53749000                       # number of ReadReq miss cycles
system.cpu.icache.ReadReq_miss_latency::total     53749000                       # number of ReadReq miss cycles
system.cpu.icache.demand_miss_latency::cpu.inst     53749000                       # number of demand (read+write) miss cycles
system.cpu.icache.demand_miss_latency::total     53749000                       # number of demand (read+write) miss cycles
system.cpu.icache.overall_miss_latency::cpu.inst     53749000                       # number of overall miss cycles
system.cpu.icache.overall_miss_latency::total     53749000                       # number of overall miss cycles
system.cpu.icache.ReadReq_accesses::cpu.inst    124385631                       # number of ReadReq accesses(hits+misses)
system.cpu.icache.ReadReq_accesses::total    124385631                       # number of ReadReq accesses(hits+misses)
system.cpu.icache.demand_accesses::cpu.inst    124385631                       # number of demand (read+write) accesses
system.cpu.icache.demand_accesses::total    124385631                       # number of demand (read+write) accesses
system.cpu.icache.overall_accesses::cpu.inst    124385631                       # number of overall (read+write) accesses
system.cpu.icache.overall_accesses::total    124385631                       # number of overall (read+write) accesses
system.cpu.icache.ReadReq_miss_rate::cpu.inst     0.000003                       # miss rate for ReadReq accesses
system.cpu.icache.ReadReq_miss_rate::total     0.000003                       # miss rate for ReadReq accesses
system.cpu.icache.demand_miss_rate::cpu.inst     0.000003                       # miss rate for demand accesses
system.cpu.icache.demand_miss_rate::total     0.000003                       # miss rate for demand accesses
system.cpu.icache.overall_miss_rate::cpu.inst     0.000003                       # miss rate for overall accesses
system.cpu.icache.overall_miss_rate::total     0.000003                       # miss rate for overall accesses
system.cpu.icache.ReadReq_avg_miss_latency::cpu.inst 152263.456091                       # average ReadReq miss latency
system.cpu.icache.ReadReq_avg_miss_latency::total 152263.456091                       # average ReadReq miss latency
system.cpu.icache.demand_avg_miss_latency::cpu.inst 152263.456091                       # average overall miss latency
system.cpu.icache.demand_avg_miss_latency::total 152263.456091                       # average overall miss latency
system.cpu.icache.overall_avg_miss_latency::cpu.inst 152263.456091                       # average overall miss latency
system.cpu.icache.overall_avg_miss_latency::total 152263.456091                       # average overall miss latency
system.cpu.icache.blocked_cycles::no_mshrs            0                       # number of cycles access was blocked
system.cpu.icache.blocked_cycles::no_targets            0                       # number of cycles access was blocked
system.cpu.icache.blocked::no_mshrs                 0                       # number of cycles access was blocked
system.cpu.icache.blocked::no_targets               0                       # number of cycles access was blocked
system.cpu.icache.avg_blocked_cycles::no_mshrs          nan                       # average number of cycles each access was blocked
system.cpu.icache.avg_blocked_cycles::no_targets          nan                       # average number of cycles each access was blocked
system.cpu.icache.writebacks::writebacks           43                       # number of writebacks
system.cpu.icache.writebacks::total                43                       # number of writebacks
system.cpu.icache.ReadReq_mshr_misses::cpu.inst          353                       # number of ReadReq MSHR misses
system.cpu.icache.ReadReq_mshr_misses::total          353                       # number of ReadReq MSHR misses
system.cpu.icache.demand_mshr_misses::cpu.inst          353                       # number of demand (read+write) MSHR misses
system.cpu.icache.demand_mshr_misses::total          353                       # number of demand (read+write) MSHR misses
system.cpu.icache.overall_mshr_misses::cpu.inst          353                       # number of overall MSHR misses
system.cpu.icache.overall_mshr_misses::total          353                       # number of overall MSHR misses
system.cpu.icache.ReadReq_mshr_miss_latency::cpu.inst     53396000                       # number of ReadReq MSHR miss cycles
system.cpu.icache.ReadReq_mshr_miss_latency::total     53396000                       # number of ReadReq MSHR miss cycles
system.cpu.icache.demand_mshr_miss_latency::cpu.inst     53396000                       # number of demand (read+write) MSHR miss cycles
system.cpu.icache.demand_mshr_miss_latency::total     53396000                       # number of demand (read+write) MSHR miss cycles
system.cpu.icache.overall_mshr_miss_latency::cpu.inst     53396000                       # number of overall MSHR miss cycles
system.cpu.icache.overall_mshr_miss_latency::total     53396000                       # number of overall MSHR miss cycles
system.cpu.icache.ReadReq_mshr_miss_rate::cpu.inst     0.000003                       # mshr miss rate for ReadReq accesses
system.cpu.icache.ReadReq_mshr_miss_rate::total     0.000003                       # mshr miss rate for ReadReq accesses
system.cpu.icache.demand_mshr_miss_rate::cpu.inst     0.000003                       # mshr miss rate for demand accesses
system.cpu.icache.demand_mshr_miss_rate::total     0.000003                       # mshr miss rate for demand accesses
system.cpu.icache.overall_mshr_miss_rate::cpu.inst     0.000003                       # mshr miss rate for overall accesses
system.cpu.icache.overall_mshr_miss_rate::total     0.000003                       # mshr miss rate for overall accesses
system.cpu.icache.ReadReq_avg_mshr_miss_latency::cpu.inst 151263.456091                       # average ReadReq mshr miss latency
system.cpu.icache.ReadReq_avg_mshr_miss_latency::total 151263.456091                       # average ReadReq mshr miss latency
system.cpu.icache.demand_avg_mshr_miss_latency::cpu.inst 151263.456091                       # average overall mshr miss latency
system.cpu.icache.demand_avg_mshr_miss_latency::total 151263.456091                       # average overall mshr miss latency
system.cpu.icache.overall_avg_mshr_miss_latency::cpu.inst 151263.456091                       # average overall mshr miss latency
system.cpu.icache.overall_avg_mshr_miss_latency::total 151263.456091                       # average overall mshr miss latency
system.cpu.icache.replacements                     43                       # number of replacements
system.cpu.itb_walker_cache.tags.pwrStateResidencyTicks::UNDEFINED 183905472000                       # Cumulative time (in ticks) in various power states
system.cpu.itb_walker_cache.tags.tagsinuse            0                       # Cycle average of tags in use
system.cpu.itb_walker_cache.tags.total_refs            0                       # Total number of references to valid blocks.
system.cpu.itb_walker_cache.tags.sampled_refs            0                       # Sample count of references to valid blocks.
system.cpu.itb_walker_cache.tags.avg_refs          nan                       # Average number of references to valid blocks.
system.cpu.itb_walker_cache.tags.warmup_cycle            0                       # Cycle when the warmup percentage was hit.
system.cpu.itb_walker_cache.tags.tag_accesses            0                       # Number of tag accesses
system.cpu.itb_walker_cache.tags.data_accesses            0                       # Number of data accesses
system.cpu.itb_walker_cache.pwrStateResidencyTicks::UNDEFINED 183905472000                       # Cumulative time (in ticks) in various power states
system.cpu.itb_walker_cache.blocked_cycles::no_mshrs            0                       # number of cycles access was blocked
system.cpu.itb_walker_cache.blocked_cycles::no_targets            0                       # number of cycles access was blocked
system.cpu.itb_walker_cache.blocked::no_mshrs            0                       # number of cycles access was blocked
system.cpu.itb_walker_cache.blocked::no_targets            0                       # number of cycles access was blocked
system.cpu.itb_walker_cache.avg_blocked_cycles::no_mshrs          nan                       # average number of cycles each access was blocked
system.cpu.itb_walker_cache.avg_blocked_cycles::no_targets          nan                       # average number of cycles each access was blocked
system.cpu.itb_walker_cache.replacements            0                       # number of replacements
system.l2.tags.pwrStateResidencyTicks::UNDEFINED 183905472000                       # Cumulative time (in ticks) in various power states
system.l2.tags.tagsinuse                  2034.091924                       # Cycle average of tags in use
system.l2.tags.total_refs                    12257224                       # Total number of references to valid blocks.
system.l2.tags.sampled_refs                     71578                       # Sample count of references to valid blocks.
system.l2.tags.avg_refs                    171.242896                       # Average number of references to valid blocks.
system.l2.tags.warmup_cycle                    428500                       # Cycle when the warmup percentage was hit.
system.l2.tags.occ_blocks::writebacks        0.565540                       # Average occupied blocks per requestor
system.l2.tags.occ_blocks::cpu.inst          5.286913                       # Average occupied blocks per requestor
system.l2.tags.occ_blocks::cpu.data       2028.239471                       # Average occupied blocks per requestor
system.l2.tags.occ_percent::writebacks       0.000276                       # Average percentage of cache occupancy
system.l2.tags.occ_percent::cpu.inst         0.002582                       # Average percentage of cache occupancy
system.l2.tags.occ_percent::cpu.data         0.990351                       # Average percentage of cache occupancy
system.l2.tags.occ_percent::total            0.993209                       # Average percentage of cache occupancy
system.l2.tags.occ_task_id_blocks::1024          2048                       # Occupied blocks per task id
system.l2.tags.age_task_id_blocks_1024::0           72                       # Occupied blocks per task id
system.l2.tags.age_task_id_blocks_1024::3            2                       # Occupied blocks per task id
system.l2.tags.age_task_id_blocks_1024::4         1974                       # Occupied blocks per task id
system.l2.tags.occ_task_id_percent::1024            1                       # Percentage of cache occupancy per task id
system.l2.tags.tag_accesses                  98129386                       # Number of tag accesses
system.l2.tags.data_accesses                 98129386                       # Number of data accesses
system.l2.pwrStateResidencyTicks::UNDEFINED 183905472000                       # Cumulative time (in ticks) in various power states
system.l2.WritebackDirty_hits::writebacks         9424                       # number of WritebackDirty hits
system.l2.WritebackDirty_hits::total             9424                       # number of WritebackDirty hits
system.l2.WritebackClean_hits::writebacks           43                       # number of WritebackClean hits
system.l2.WritebackClean_hits::total               43                       # number of WritebackClean hits
system.l2.WriteClean_hits::writebacks        11986900                       # number of WriteClean hits
system.l2.WriteClean_hits::total             11986900                       # number of WriteClean hits
system.l2.UpgradeReq_hits::cpu.data             53921                       # number of UpgradeReq hits
system.l2.UpgradeReq_hits::total                53921                       # number of UpgradeReq hits
system.l2.ReadExReq_hits::cpu.data                674                       # number of ReadExReq hits
system.l2.ReadExReq_hits::total                   674                       # number of ReadExReq hits
system.l2.ReadSharedReq_hits::cpu.data          36373                       # number of ReadSharedReq hits
system.l2.ReadSharedReq_hits::total             36373                       # number of ReadSharedReq hits
system.l2.demand_hits::cpu.data                 37047                       # number of demand (read+write) hits
system.l2.demand_hits::total                    37047                       # number of demand (read+write) hits
system.l2.overall_hits::cpu.data                37047                       # number of overall hits
system.l2.overall_hits::total                   37047                       # number of overall hits
system.l2.UpgradeReq_misses::cpu.data               1                       # number of UpgradeReq misses
system.l2.UpgradeReq_misses::total                  1                       # number of UpgradeReq misses
system.l2.ReadExReq_misses::cpu.data            12712                       # number of ReadExReq misses
system.l2.ReadExReq_misses::total               12712                       # number of ReadExReq misses
system.l2.ReadCleanReq_misses::cpu.inst           353                       # number of ReadCleanReq misses
system.l2.ReadCleanReq_misses::total              353                       # number of ReadCleanReq misses
system.l2.ReadSharedReq_misses::cpu.data        58501                       # number of ReadSharedReq misses
system.l2.ReadSharedReq_misses::total           58501                       # number of ReadSharedReq misses
system.l2.demand_misses::cpu.inst                 353                       # number of demand (read+write) misses
system.l2.demand_misses::cpu.data               71213                       # number of demand (read+write) misses
system.l2.demand_misses::total                  71566                       # number of demand (read+write) misses
system.l2.overall_misses::cpu.inst                353                       # number of overall misses
system.l2.overall_misses::cpu.data              71213                       # number of overall misses
system.l2.overall_misses::total                 71566                       # number of overall misses
system.l2.UpgradeReq_miss_latency::cpu.data        31500                       # number of UpgradeReq miss cycles
system.l2.UpgradeReq_miss_latency::total        31500                       # number of UpgradeReq miss cycles
system.l2.ReadExReq_miss_latency::cpu.data    589857500                       # number of ReadExReq miss cycles
system.l2.ReadExReq_miss_latency::total     589857500                       # number of ReadExReq miss cycles
system.l2.ReadCleanReq_miss_latency::cpu.inst     52828000                       # number of ReadCleanReq miss cycles
system.l2.ReadCleanReq_miss_latency::total     52828000                       # number of ReadCleanReq miss cycles
system.l2.ReadSharedReq_miss_latency::cpu.data   1859612500                       # number of ReadSharedReq miss cycles
system.l2.ReadSharedReq_miss_latency::total   1859612500                       # number of ReadSharedReq miss cycles
system.l2.demand_miss_latency::cpu.inst      52828000                       # number of demand (read+write) miss cycles
system.l2.demand_miss_latency::cpu.data    2449470000                       # number of demand (read+write) miss cycles
system.l2.demand_miss_latency::total       2502298000                       # number of demand (read+write) miss cycles
system.l2.overall_miss_latency::cpu.inst     52828000                       # number of overall miss cycles
system.l2.overall_miss_latency::cpu.data   2449470000                       # number of overall miss cycles
system.l2.overall_miss_latency::total      2502298000                       # number of overall miss cycles
system.l2.WritebackDirty_accesses::writebacks         9424                       # number of WritebackDirty accesses(hits+misses)
system.l2.WritebackDirty_accesses::total         9424                       # number of WritebackDirty accesses(hits+misses)
system.l2.WritebackClean_accesses::writebacks           43                       # number of WritebackClean accesses(hits+misses)
system.l2.WritebackClean_accesses::total           43                       # number of WritebackClean accesses(hits+misses)
system.l2.WriteClean_accesses::writebacks     11986900                       # number of WriteClean accesses(hits+misses)
system.l2.WriteClean_accesses::total         11986900                       # number of WriteClean accesses(hits+misses)
system.l2.UpgradeReq_accesses::cpu.data         53922                       # number of UpgradeReq accesses(hits+misses)
system.l2.UpgradeReq_accesses::total            53922                       # number of UpgradeReq accesses(hits+misses)
system.l2.ReadExReq_accesses::cpu.data          13386                       # number of ReadExReq accesses(hits+misses)
system.l2.ReadExReq_accesses::total             13386                       # number of ReadExReq accesses(hits+misses)
system.l2.ReadCleanReq_accesses::cpu.inst          353                       # number of ReadCleanReq accesses(hits+misses)
system.l2.ReadCleanReq_accesses::total            353                       # number of ReadCleanReq accesses(hits+misses)
system.l2.ReadSharedReq_accesses::cpu.data        94874                       # number of ReadSharedReq accesses(hits+misses)
system.l2.ReadSharedReq_accesses::total         94874                       # number of ReadSharedReq accesses(hits+misses)
system.l2.demand_accesses::cpu.inst               353                       # number of demand (read+write) accesses
system.l2.demand_accesses::cpu.data            108260                       # number of demand (read+write) accesses
system.l2.demand_accesses::total               108613                       # number of demand (read+write) accesses
system.l2.overall_accesses::cpu.inst              353                       # number of overall (read+write) accesses
system.l2.overall_accesses::cpu.data           108260                       # number of overall (read+write) accesses
system.l2.overall_accesses::total              108613                       # number of overall (read+write) accesses
system.l2.UpgradeReq_miss_rate::cpu.data     0.000019                       # miss rate for UpgradeReq accesses
system.l2.UpgradeReq_miss_rate::total        0.000019                       # miss rate for UpgradeReq accesses
system.l2.ReadExReq_miss_rate::cpu.data      0.949649                       # miss rate for ReadExReq accesses
system.l2.ReadExReq_miss_rate::total         0.949649                       # miss rate for ReadExReq accesses
system.l2.ReadCleanReq_miss_rate::cpu.inst            1                       # miss rate for ReadCleanReq accesses
system.l2.ReadCleanReq_miss_rate::total             1                       # miss rate for ReadCleanReq accesses
system.l2.ReadSharedReq_miss_rate::cpu.data     0.616618                       # miss rate for ReadSharedReq accesses
system.l2.ReadSharedReq_miss_rate::total     0.616618                       # miss rate for ReadSharedReq accesses
system.l2.demand_miss_rate::cpu.inst                1                       # miss rate for demand accesses
system.l2.demand_miss_rate::cpu.data         0.657796                       # miss rate for demand accesses
system.l2.demand_miss_rate::total            0.658908                       # miss rate for demand accesses
system.l2.overall_miss_rate::cpu.inst               1                       # miss rate for overall accesses
system.l2.overall_miss_rate::cpu.data        0.657796                       # miss rate for overall accesses
system.l2.overall_miss_rate::total           0.658908                       # miss rate for overall accesses
system.l2.UpgradeReq_avg_miss_latency::cpu.data        31500                       # average UpgradeReq miss latency
system.l2.UpgradeReq_avg_miss_latency::total        31500                       # average UpgradeReq miss latency
system.l2.ReadExReq_avg_miss_latency::cpu.data 46401.628383                       # average ReadExReq miss latency
system.l2.ReadExReq_avg_miss_latency::total 46401.628383                       # average ReadExReq miss latency
system.l2.ReadCleanReq_avg_miss_latency::cpu.inst 149654.390935                       # average ReadCleanReq miss latency
system.l2.ReadCleanReq_avg_miss_latency::total 149654.390935                       # average ReadCleanReq miss latency
system.l2.ReadSharedReq_avg_miss_latency::cpu.data 31787.704484                       # average ReadSharedReq miss latency
system.l2.ReadSharedReq_avg_miss_latency::total 31787.704484                       # average ReadSharedReq miss latency
system.l2.demand_avg_miss_latency::cpu.inst 149654.390935                       # average overall miss latency
system.l2.demand_avg_miss_latency::cpu.data 34396.388300                       # average overall miss latency
system.l2.demand_avg_miss_latency::total 34964.899533                       # average overall miss latency
system.l2.overall_avg_miss_latency::cpu.inst 149654.390935                       # average overall miss latency
system.l2.overall_avg_miss_latency::cpu.data 34396.388300                       # average overall miss latency
system.l2.overall_avg_miss_latency::total 34964.899533                       # average overall miss latency
system.l2.blocked_cycles::no_mshrs                  0                       # number of cycles access was blocked
system.l2.blocked_cycles::no_targets                0                       # number of cycles access was blocked
system.l2.blocked::no_mshrs                         0                       # number of cycles access was blocked
system.l2.blocked::no_targets                       0                       # number of cycles access was blocked
system.l2.avg_blocked_cycles::no_mshrs            nan                       # average number of cycles each access was blocked
system.l2.avg_blocked_cycles::no_targets          nan                       # average number of cycles each access was blocked
system.l2.writebacks::writebacks                69152                       # number of writebacks
system.l2.writebacks::total                     69152                       # number of writebacks
system.l2.CleanEvict_mshr_misses::writebacks            2                       # number of CleanEvict MSHR misses
system.l2.CleanEvict_mshr_misses::total             2                       # number of CleanEvict MSHR misses
system.l2.UpgradeReq_mshr_misses::cpu.data            1                       # number of UpgradeReq MSHR misses
system.l2.UpgradeReq_mshr_misses::total             1                       # number of UpgradeReq MSHR misses
system.l2.ReadExReq_mshr_misses::cpu.data        12712                       # number of ReadExReq MSHR misses
system.l2.ReadExReq_mshr_misses::total          12712                       # number of ReadExReq MSHR misses
system.l2.ReadCleanReq_mshr_misses::cpu.inst          353                       # number of ReadCleanReq MSHR misses
system.l2.ReadCleanReq_mshr_misses::total          353                       # number of ReadCleanReq MSHR misses
system.l2.ReadSharedReq_mshr_misses::cpu.data        58501                       # number of ReadSharedReq MSHR misses
system.l2.ReadSharedReq_mshr_misses::total        58501                       # number of ReadSharedReq MSHR misses
system.l2.demand_mshr_misses::cpu.inst            353                       # number of demand (read+write) MSHR misses
system.l2.demand_mshr_misses::cpu.data          71213                       # number of demand (read+write) MSHR misses
system.l2.demand_mshr_misses::total             71566                       # number of demand (read+write) MSHR misses
system.l2.overall_mshr_misses::cpu.inst           353                       # number of overall MSHR misses
system.l2.overall_mshr_misses::cpu.data         71213                       # number of overall MSHR misses
system.l2.overall_mshr_misses::total            71566                       # number of overall MSHR misses
system.l2.UpgradeReq_mshr_miss_latency::cpu.data        21500                       # number of UpgradeReq MSHR miss cycles
system.l2.UpgradeReq_mshr_miss_latency::total        21500                       # number of UpgradeReq MSHR miss cycles
system.l2.ReadExReq_mshr_miss_latency::cpu.data    462737500                       # number of ReadExReq MSHR miss cycles
system.l2.ReadExReq_mshr_miss_latency::total    462737500                       # number of ReadExReq MSHR miss cycles
system.l2.ReadCleanReq_mshr_miss_latency::cpu.inst     49298000                       # number of ReadCleanReq MSHR miss cycles
system.l2.ReadCleanReq_mshr_miss_latency::total     49298000                       # number of ReadCleanReq MSHR miss cycles
system.l2.ReadSharedReq_mshr_miss_latency::cpu.data   1274602500                       # number of ReadSharedReq MSHR miss cycles
system.l2.ReadSharedReq_mshr_miss_latency::total   1274602500                       # number of ReadSharedReq MSHR miss cycles
system.l2.demand_mshr_miss_latency::cpu.inst     49298000                       # number of demand (read+write) MSHR miss cycles
system.l2.demand_mshr_miss_latency::cpu.data   1737340000                       # number of demand (read+write) MSHR miss cycles
system.l2.demand_mshr_miss_latency::total   1786638000                       # number of demand (read+write) MSHR miss cycles
system.l2.overall_mshr_miss_latency::cpu.inst     49298000                       # number of overall MSHR miss cycles
system.l2.overall_mshr_miss_latency::cpu.data   1737340000                       # number of overall MSHR miss cycles
system.l2.overall_mshr_miss_latency::total   1786638000                       # number of overall MSHR miss cycles
system.l2.CleanEvict_mshr_miss_rate::writebacks          inf                       # mshr miss rate for CleanEvict accesses
system.l2.CleanEvict_mshr_miss_rate::total          inf                       # mshr miss rate for CleanEvict accesses
system.l2.UpgradeReq_mshr_miss_rate::cpu.data     0.000019                       # mshr miss rate for UpgradeReq accesses
system.l2.UpgradeReq_mshr_miss_rate::total     0.000019                       # mshr miss rate for UpgradeReq accesses
system.l2.ReadExReq_mshr_miss_rate::cpu.data     0.949649                       # mshr miss rate for ReadExReq accesses
system.l2.ReadExReq_mshr_miss_rate::total     0.949649                       # mshr miss rate for ReadExReq accesses
system.l2.ReadCleanReq_mshr_miss_rate::cpu.inst            1                       # mshr miss rate for ReadCleanReq accesses
system.l2.ReadCleanReq_mshr_miss_rate::total            1                       # mshr miss rate for ReadCleanReq accesses
system.l2.ReadSharedReq_mshr_miss_rate::cpu.data     0.616618                       # mshr miss rate for ReadSharedReq accesses
system.l2.ReadSharedReq_mshr_miss_rate::total     0.616618                       # mshr miss rate for ReadSharedReq accesses
system.l2.demand_mshr_miss_rate::cpu.inst            1                       # mshr miss rate for demand accesses
system.l2.demand_mshr_miss_rate::cpu.data     0.657796                       # mshr miss rate for demand accesses
system.l2.demand_mshr_miss_rate::total       0.658908                       # mshr miss rate for demand accesses
system.l2.overall_mshr_miss_rate::cpu.inst            1                       # mshr miss rate for overall accesses
system.l2.overall_mshr_miss_rate::cpu.data     0.657796                       # mshr miss rate for overall accesses
system.l2.overall_mshr_miss_rate::total      0.658908                       # mshr miss rate for overall accesses
system.l2.UpgradeReq_avg_mshr_miss_latency::cpu.data        21500                       # average UpgradeReq mshr miss latency
system.l2.UpgradeReq_avg_mshr_miss_latency::total        21500                       # average UpgradeReq mshr miss latency
system.l2.ReadExReq_avg_mshr_miss_latency::cpu.data 36401.628383                       # average ReadExReq mshr miss latency
system.l2.ReadExReq_avg_mshr_miss_latency::total 36401.628383                       # average ReadExReq mshr miss latency
system.l2.ReadCleanReq_avg_mshr_miss_latency::cpu.inst 139654.390935                       # average ReadCleanReq mshr miss latency
system.l2.ReadCleanReq_avg_mshr_miss_latency::total 139654.390935                       # average ReadCleanReq mshr miss latency
system.l2.ReadSharedReq_avg_mshr_miss_latency::cpu.data 21787.704484                       # average ReadSharedReq mshr miss latency
system.l2.ReadSharedReq_avg_mshr_miss_latency::total 21787.704484                       # average ReadSharedReq mshr miss latency
system.l2.demand_avg_mshr_miss_latency::cpu.inst 139654.390935                       # average overall mshr miss latency
system.l2.demand_avg_mshr_miss_latency::cpu.data 24396.388300                       # average overall mshr miss latency
system.l2.demand_avg_mshr_miss_latency::total 24964.899533                       # average overall mshr miss latency
system.l2.overall_avg_mshr_miss_latency::cpu.inst 139654.390935                       # average overall mshr miss latency
system.l2.overall_avg_mshr_miss_latency::cpu.data 24396.388300                       # average overall mshr miss latency
system.l2.overall_avg_mshr_miss_latency::total 24964.899533                       # average overall mshr miss latency
system.l2.replacements                          69530                       # number of replacements
system.l3.tags.pwrStateResidencyTicks::UNDEFINED 183905472000                       # Cumulative time (in ticks) in various power states
system.l3.tags.tagsinuse                 12195.860626                       # Cycle average of tags in use
system.l3.tags.total_refs                      140818                       # Total number of references to valid blocks.
system.l3.tags.sampled_refs                     13081                       # Sample count of references to valid blocks.
system.l3.tags.avg_refs                     10.765079                       # Average number of references to valid blocks.
system.l3.tags.warmup_cycle                    418000                       # Cycle when the warmup percentage was hit.
system.l3.tags.occ_blocks::cpu.inst        314.389316                       # Average occupied blocks per requestor
system.l3.tags.occ_blocks::cpu.data      11881.471311                       # Average occupied blocks per requestor
system.l3.tags.occ_percent::cpu.inst         0.019189                       # Average percentage of cache occupancy
system.l3.tags.occ_percent::cpu.data         0.725187                       # Average percentage of cache occupancy
system.l3.tags.occ_percent::total            0.744376                       # Average percentage of cache occupancy
system.l3.tags.occ_task_id_blocks::1024         13081                       # Occupied blocks per task id
system.l3.tags.age_task_id_blocks_1024::0           52                       # Occupied blocks per task id
system.l3.tags.age_task_id_blocks_1024::4        13029                       # Occupied blocks per task id
system.l3.tags.occ_task_id_percent::1024     0.798401                       # Percentage of cache occupancy per task id
system.l3.tags.tag_accesses                2307175193                       # Number of tag accesses
system.l3.tags.data_accesses               2307175193                       # Number of data accesses
system.l3.pwrStateResidencyTicks::UNDEFINED 183905472000                       # Cumulative time (in ticks) in various power states
system.l3.WritebackDirty_hits::writebacks        69152                       # number of WritebackDirty hits
system.l3.WritebackDirty_hits::total            69152                       # number of WritebackDirty hits
system.l3.UpgradeReq_hits::cpu.data                 1                       # number of UpgradeReq hits
system.l3.UpgradeReq_hits::total                    1                       # number of UpgradeReq hits
system.l3.ReadExReq_hits::cpu.data                 81                       # number of ReadExReq hits
system.l3.ReadExReq_hits::total                    81                       # number of ReadExReq hits
system.l3.ReadSharedReq_hits::cpu.data          58404                       # number of ReadSharedReq hits
system.l3.ReadSharedReq_hits::total             58404                       # number of ReadSharedReq hits
system.l3.demand_hits::cpu.data                 58485                       # number of demand (read+write) hits
system.l3.demand_hits::total                    58485                       # number of demand (read+write) hits
system.l3.overall_hits::cpu.data                58485                       # number of overall hits
system.l3.overall_hits::total                   58485                       # number of overall hits
system.l3.ReadExReq_misses::cpu.data            12631                       # number of ReadExReq misses
system.l3.ReadExReq_misses::total               12631                       # number of ReadExReq misses
system.l3.ReadSharedReq_misses::cpu.inst          353                       # number of ReadSharedReq misses
system.l3.ReadSharedReq_misses::cpu.data           97                       # number of ReadSharedReq misses
system.l3.ReadSharedReq_misses::total             450                       # number of ReadSharedReq misses
system.l3.demand_misses::cpu.inst                 353                       # number of demand (read+write) misses
system.l3.demand_misses::cpu.data               12728                       # number of demand (read+write) misses
system.l3.demand_misses::total                  13081                       # number of demand (read+write) misses
system.l3.overall_misses::cpu.inst                353                       # number of overall misses
system.l3.overall_misses::cpu.data              12728                       # number of overall misses
system.l3.overall_misses::total                 13081                       # number of overall misses
system.l3.ReadExReq_miss_latency::cpu.data    322055000                       # number of ReadExReq miss cycles
system.l3.ReadExReq_miss_latency::total     322055000                       # number of ReadExReq miss cycles
system.l3.ReadSharedReq_miss_latency::cpu.inst     45415000                       # number of ReadSharedReq miss cycles
system.l3.ReadSharedReq_miss_latency::cpu.data     17849500                       # number of ReadSharedReq miss cycles
system.l3.ReadSharedReq_miss_latency::total     63264500                       # number of ReadSharedReq miss cycles
system.l3.demand_miss_latency::cpu.inst      45415000                       # number of demand (read+write) miss cycles
system.l3.demand_miss_latency::cpu.data     339904500                       # number of demand (read+write) miss cycles
system.l3.demand_miss_latency::total        385319500                       # number of demand (read+write) miss cycles
system.l3.overall_miss_latency::cpu.inst     45415000                       # number of overall miss cycles
system.l3.overall_miss_latency::cpu.data    339904500                       # number of overall miss cycles
system.l3.overall_miss_latency::total       385319500                       # number of overall miss cycles
system.l3.WritebackDirty_accesses::writebacks        69152                       # number of WritebackDirty accesses(hits+misses)
system.l3.WritebackDirty_accesses::total        69152                       # number of WritebackDirty accesses(hits+misses)
system.l3.UpgradeReq_accesses::cpu.data             1                       # number of UpgradeReq accesses(hits+misses)
system.l3.UpgradeReq_accesses::total                1                       # number of UpgradeReq accesses(hits+misses)
system.l3.ReadExReq_accesses::cpu.data          12712                       # number of ReadExReq accesses(hits+misses)
system.l3.ReadExReq_accesses::total             12712                       # number of ReadExReq accesses(hits+misses)
system.l3.ReadSharedReq_accesses::cpu.inst          353                       # number of ReadSharedReq accesses(hits+misses)
system.l3.ReadSharedReq_accesses::cpu.data        58501                       # number of ReadSharedReq accesses(hits+misses)
system.l3.ReadSharedReq_accesses::total         58854                       # number of ReadSharedReq accesses(hits+misses)
system.l3.demand_accesses::cpu.inst               353                       # number of demand (read+write) accesses
system.l3.demand_accesses::cpu.data             71213                       # number of demand (read+write) accesses
system.l3.demand_accesses::total                71566                       # number of demand (read+write) accesses
system.l3.overall_accesses::cpu.inst              353                       # number of overall (read+write) accesses
system.l3.overall_accesses::cpu.data            71213                       # number of overall (read+write) accesses
system.l3.overall_accesses::total               71566                       # number of overall (read+write) accesses
system.l3.ReadExReq_miss_rate::cpu.data      0.993628                       # miss rate for ReadExReq accesses
system.l3.ReadExReq_miss_rate::total         0.993628                       # miss rate for ReadExReq accesses
system.l3.ReadSharedReq_miss_rate::cpu.inst            1                       # miss rate for ReadSharedReq accesses
system.l3.ReadSharedReq_miss_rate::cpu.data     0.001658                       # miss rate for ReadSharedReq accesses
system.l3.ReadSharedReq_miss_rate::total     0.007646                       # miss rate for ReadSharedReq accesses
system.l3.demand_miss_rate::cpu.inst                1                       # miss rate for demand accesses
system.l3.demand_miss_rate::cpu.data         0.178731                       # miss rate for demand accesses
system.l3.demand_miss_rate::total            0.182782                       # miss rate for demand accesses
system.l3.overall_miss_rate::cpu.inst               1                       # miss rate for overall accesses
system.l3.overall_miss_rate::cpu.data        0.178731                       # miss rate for overall accesses
system.l3.overall_miss_rate::total           0.182782                       # miss rate for overall accesses
system.l3.ReadExReq_avg_miss_latency::cpu.data 25497.189455                       # average ReadExReq miss latency
system.l3.ReadExReq_avg_miss_latency::total 25497.189455                       # average ReadExReq miss latency
system.l3.ReadSharedReq_avg_miss_latency::cpu.inst 128654.390935                       # average ReadSharedReq miss latency
system.l3.ReadSharedReq_avg_miss_latency::cpu.data 184015.463918                       # average ReadSharedReq miss latency
system.l3.ReadSharedReq_avg_miss_latency::total 140587.777778                       # average ReadSharedReq miss latency
system.l3.demand_avg_miss_latency::cpu.inst 128654.390935                       # average overall miss latency
system.l3.demand_avg_miss_latency::cpu.data 26705.256128                       # average overall miss latency
system.l3.demand_avg_miss_latency::total 29456.425350                       # average overall miss latency
system.l3.overall_avg_miss_latency::cpu.inst 128654.390935                       # average overall miss latency
system.l3.overall_avg_miss_latency::cpu.data 26705.256128                       # average overall miss latency
system.l3.overall_avg_miss_latency::total 29456.425350                       # average overall miss latency
system.l3.blocked_cycles::no_mshrs                  0                       # number of cycles access was blocked
system.l3.blocked_cycles::no_targets                0                       # number of cycles access was blocked
system.l3.blocked::no_mshrs                         0                       # number of cycles access was blocked
system.l3.blocked::no_targets                       0                       # number of cycles access was blocked
system.l3.avg_blocked_cycles::no_mshrs            nan                       # average number of cycles each access was blocked
system.l3.avg_blocked_cycles::no_targets          nan                       # average number of cycles each access was blocked
system.l3.ReadExReq_mshr_misses::cpu.data        12631                       # number of ReadExReq MSHR misses
system.l3.ReadExReq_mshr_misses::total          12631                       # number of ReadExReq MSHR misses
system.l3.ReadSharedReq_mshr_misses::cpu.inst          353                       # number of ReadSharedReq MSHR misses
system.l3.ReadSharedReq_mshr_misses::cpu.data           97                       # number of ReadSharedReq MSHR misses
system.l3.ReadSharedReq_mshr_misses::total          450                       # number of ReadSharedReq MSHR misses
system.l3.demand_mshr_misses::cpu.inst            353                       # number of demand (read+write) MSHR misses
system.l3.demand_mshr_misses::cpu.data          12728                       # number of demand (read+write) MSHR misses
system.l3.demand_mshr_misses::total             13081                       # number of demand (read+write) MSHR misses
system.l3.overall_mshr_misses::cpu.inst           353                       # number of overall MSHR misses
system.l3.overall_mshr_misses::cpu.data         12728                       # number of overall MSHR misses
system.l3.overall_mshr_misses::total            13081                       # number of overall MSHR misses
system.l3.ReadExReq_mshr_miss_latency::cpu.data    195745000                       # number of ReadExReq MSHR miss cycles
system.l3.ReadExReq_mshr_miss_latency::total    195745000                       # number of ReadExReq MSHR miss cycles
system.l3.ReadSharedReq_mshr_miss_latency::cpu.inst     41885000                       # number of ReadSharedReq MSHR miss cycles
system.l3.ReadSharedReq_mshr_miss_latency::cpu.data     16879500                       # number of ReadSharedReq MSHR miss cycles
system.l3.ReadSharedReq_mshr_miss_latency::total     58764500                       # number of ReadSharedReq MSHR miss cycles
system.l3.demand_mshr_miss_latency::cpu.inst     41885000                       # number of demand (read+write) MSHR miss cycles
system.l3.demand_mshr_miss_latency::cpu.data    212624500                       # number of demand (read+write) MSHR miss cycles
system.l3.demand_mshr_miss_latency::total    254509500                       # number of demand (read+write) MSHR miss cycles
system.l3.overall_mshr_miss_latency::cpu.inst     41885000                       # number of overall MSHR miss cycles
system.l3.overall_mshr_miss_latency::cpu.data    212624500                       # number of overall MSHR miss cycles
system.l3.overall_mshr_miss_latency::total    254509500                       # number of overall MSHR miss cycles
system.l3.ReadExReq_mshr_miss_rate::cpu.data     0.993628                       # mshr miss rate for ReadExReq accesses
system.l3.ReadExReq_mshr_miss_rate::total     0.993628                       # mshr miss rate for ReadExReq accesses
system.l3.ReadSharedReq_mshr_miss_rate::cpu.inst            1                       # mshr miss rate for ReadSharedReq accesses
system.l3.ReadSharedReq_mshr_miss_rate::cpu.data     0.001658                       # mshr miss rate for ReadSharedReq accesses
system.l3.ReadSharedReq_mshr_miss_rate::total     0.007646                       # mshr miss rate for ReadSharedReq accesses
system.l3.demand_mshr_miss_rate::cpu.inst            1                       # mshr miss rate for demand accesses
system.l3.demand_mshr_miss_rate::cpu.data     0.178731                       # mshr miss rate for demand accesses
system.l3.demand_mshr_miss_rate::total       0.182782                       # mshr miss rate for demand accesses
system.l3.overall_mshr_miss_rate::cpu.inst            1                       # mshr miss rate for overall accesses
system.l3.overall_mshr_miss_rate::cpu.data     0.178731                       # mshr miss rate for overall accesses
system.l3.overall_mshr_miss_rate::total      0.182782                       # mshr miss rate for overall accesses
system.l3.ReadExReq_avg_mshr_miss_latency::cpu.data 15497.189455                       # average ReadExReq mshr miss latency
system.l3.ReadExReq_avg_mshr_miss_latency::total 15497.189455                       # average ReadExReq mshr miss latency
system.l3.ReadSharedReq_avg_mshr_miss_latency::cpu.inst 118654.390935                       # average ReadSharedReq mshr miss latency
system.l3.ReadSharedReq_avg_mshr_miss_latency::cpu.data 174015.463918                       # average ReadSharedReq mshr miss latency
system.l3.ReadSharedReq_avg_mshr_miss_latency::total 130587.777778                       # average ReadSharedReq mshr miss latency
system.l3.demand_avg_mshr_miss_latency::cpu.inst 118654.390935                       # average overall mshr miss latency
system.l3.demand_avg_mshr_miss_latency::cpu.data 16705.256128                       # average overall mshr miss latency
system.l3.demand_avg_mshr_miss_latency::total 19456.425350                       # average overall mshr miss latency
system.l3.overall_avg_mshr_miss_latency::cpu.inst 118654.390935                       # average overall mshr miss latency
system.l3.overall_avg_mshr_miss_latency::cpu.data 16705.256128                       # average overall mshr miss latency
system.l3.overall_avg_mshr_miss_latency::total 19456.425350                       # average overall mshr miss latency
system.l3.replacements                              0                       # number of replacements
system.membus.snoop_filter.tot_requests         13081                       # Total number of requests made to the snoop filter.
system.membus.snoop_filter.hit_single_requests            0                       # Number of requests hitting in the snoop filter with a single holder of the requested data.
system.membus.snoop_filter.hit_multi_requests            0                       # Number of requests hitting in the snoop filter with multiple (>1) holders of the requested data.
system.membus.snoop_filter.tot_snoops               0                       # Total number of snoops made to the snoop filter.
system.membus.snoop_filter.hit_single_snoops            0                       # Number of snoops hitting in the snoop filter with a single holder of the requested data.
system.membus.snoop_filter.hit_multi_snoops            0                       # Number of snoops hitting in the snoop filter with multiple (>1) holders of the requested data.
system.membus.pwrStateResidencyTicks::UNDEFINED 183905472000                       # Cumulative time (in ticks) in various power states
system.membus.trans_dist::ReadResp                450                       # Transaction distribution
system.membus.trans_dist::ReadExReq             12631                       # Transaction distribution
system.membus.trans_dist::ReadExResp            12631                       # Transaction distribution
system.membus.trans_dist::ReadSharedReq           450                       # Transaction distribution
system.membus.pkt_count_system.l3.mem_side::system.mem_ctrls.port        26162                       # Packet count per connected master and slave (bytes)
system.membus.pkt_count_system.l3.mem_side::total        26162                       # Packet count per connected master and slave (bytes)
system.membus.pkt_count::total                  26162                       # Packet count per connected master and slave (bytes)
system.membus.pkt_size_system.l3.mem_side::system.mem_ctrls.port       837184                       # Cumulative packet size per connected master and slave (bytes)
system.membus.pkt_size_system.l3.mem_side::total       837184                       # Cumulative packet size per connected master and slave (bytes)
system.membus.pkt_size::total                  837184                       # Cumulative packet size per connected master and slave (bytes)
system.membus.snoops                                0                       # Total snoops (count)
system.membus.snoopTraffic                          0                       # Total snoop traffic (bytes)
system.membus.snoop_fanout::samples             13081                       # Request fanout histogram
system.membus.snoop_fanout::mean                    0                       # Request fanout histogram
system.membus.snoop_fanout::stdev                   0                       # Request fanout histogram
system.membus.snoop_fanout::underflows              0      0.00%      0.00% # Request fanout histogram
system.membus.snoop_fanout::0                   13081    100.00%    100.00% # Request fanout histogram
system.membus.snoop_fanout::1                       0      0.00%    100.00% # Request fanout histogram
system.membus.snoop_fanout::overflows               0      0.00%    100.00% # Request fanout histogram
system.membus.snoop_fanout::min_value               0                       # Request fanout histogram
system.membus.snoop_fanout::max_value               0                       # Request fanout histogram
system.membus.snoop_fanout::total               13081                       # Request fanout histogram
system.membus.reqLayer2.occupancy            13123000                       # Layer occupancy (ticks)
system.membus.reqLayer2.utilization               0.0                       # Layer utilization (%)
system.membus.respLayer1.occupancy           65447000                       # Layer occupancy (ticks)
system.membus.respLayer1.utilization              0.0                       # Layer utilization (%)
system.tol2bus.snoop_filter.tot_requests       270326                       # Total number of requests made to the snoop filter.
system.tol2bus.snoop_filter.hit_single_requests       161713                       # Number of requests hitting in the snoop filter with a single holder of the requested data.
system.tol2bus.snoop_filter.hit_multi_requests            0                       # Number of requests hitting in the snoop filter with multiple (>1) holders of the requested data.
system.tol2bus.snoop_filter.tot_snoops            286                       # Total number of snoops made to the snoop filter.
system.tol2bus.snoop_filter.hit_single_snoops          286                       # Number of snoops hitting in the snoop filter with a single holder of the requested data.
system.tol2bus.snoop_filter.hit_multi_snoops            0                       # Number of snoops hitting in the snoop filter with multiple (>1) holders of the requested data.
system.tol2bus.pwrStateResidencyTicks::UNDEFINED 183905472000                       # Cumulative time (in ticks) in various power states
system.tol2bus.trans_dist::ReadResp             95227                       # Transaction distribution
system.tol2bus.trans_dist::WritebackDirty        78576                       # Transaction distribution
system.tol2bus.trans_dist::WritebackClean           43                       # Transaction distribution
system.tol2bus.trans_dist::WriteClean        11986900                       # Transaction distribution
system.tol2bus.trans_dist::CleanEvict           98702                       # Transaction distribution
system.tol2bus.trans_dist::UpgradeReq           53922                       # Transaction distribution
system.tol2bus.trans_dist::UpgradeResp          53922                       # Transaction distribution
system.tol2bus.trans_dist::ReadExReq            13386                       # Transaction distribution
system.tol2bus.trans_dist::ReadExResp           13386                       # Transaction distribution
system.tol2bus.trans_dist::ReadCleanReq           353                       # Transaction distribution
system.tol2bus.trans_dist::ReadSharedReq        94874                       # Transaction distribution
system.tol2bus.pkt_count_system.cpu.icache.mem_side::system.l2.cpu_side          749                       # Packet count per connected master and slave (bytes)
system.tol2bus.pkt_count_system.cpu.dcache.mem_side::system.l2.cpu_side     12419012                       # Packet count per connected master and slave (bytes)
system.tol2bus.pkt_count::total              12419761                       # Packet count per connected master and slave (bytes)
system.tol2bus.pkt_size_system.cpu.icache.mem_side::system.l2.cpu_side        25344                       # Cumulative packet size per connected master and slave (bytes)
system.tol2bus.pkt_size_system.cpu.dcache.mem_side::system.l2.cpu_side    774693376                       # Cumulative packet size per connected master and slave (bytes)
system.tol2bus.pkt_size::total              774718720                       # Cumulative packet size per connected master and slave (bytes)
system.tol2bus.snoops                           69530                       # Total snoops (count)
system.tol2bus.snoopTraffic                   4425728                       # Total snoop traffic (bytes)
system.tol2bus.snoop_fanout::samples           232065                       # Request fanout histogram
system.tol2bus.snoop_fanout::mean            0.001232                       # Request fanout histogram
system.tol2bus.snoop_fanout::stdev           0.035084                       # Request fanout histogram
system.tol2bus.snoop_fanout::underflows             0      0.00%      0.00% # Request fanout histogram
system.tol2bus.snoop_fanout::0                 231779     99.88%     99.88% # Request fanout histogram
system.tol2bus.snoop_fanout::1                    286      0.12%    100.00% # Request fanout histogram
system.tol2bus.snoop_fanout::2                      0      0.00%    100.00% # Request fanout histogram
system.tol2bus.snoop_fanout::3                      0      0.00%    100.00% # Request fanout histogram
system.tol2bus.snoop_fanout::4                      0      0.00%    100.00% # Request fanout histogram
system.tol2bus.snoop_fanout::overflows              0      0.00%    100.00% # Request fanout histogram
system.tol2bus.snoop_fanout::min_value              0                       # Request fanout histogram
system.tol2bus.snoop_fanout::max_value              1                       # Request fanout histogram
system.tol2bus.snoop_fanout::total             232065                       # Request fanout histogram
system.tol2bus.reqLayer0.occupancy        18124980000                       # Layer occupancy (ticks)
system.tol2bus.reqLayer0.utilization              9.9                       # Layer utilization (%)
system.tol2bus.respLayer0.occupancy            529500                       # Layer occupancy (ticks)
system.tol2bus.respLayer0.utilization             0.0                       # Layer utilization (%)
system.tol2bus.respLayer1.occupancy         189351000                       # Layer occupancy (ticks)
system.tol2bus.respLayer1.utilization             0.1                       # Layer utilization (%)
system.tol3bus.snoop_filter.tot_requests       140818                       # Total number of requests made to the snoop filter.
system.tol3bus.snoop_filter.hit_single_requests        69252                       # Number of requests hitting in the snoop filter with a single holder of the requested data.
system.tol3bus.snoop_filter.hit_multi_requests            0                       # Number of requests hitting in the snoop filter with multiple (>1) holders of the requested data.
system.tol3bus.snoop_filter.tot_snoops              0                       # Total number of snoops made to the snoop filter.
system.tol3bus.snoop_filter.hit_single_snoops            0                       # Number of snoops hitting in the snoop filter with a single holder of the requested data.
system.tol3bus.snoop_filter.hit_multi_snoops            0                       # Number of snoops hitting in the snoop filter with multiple (>1) holders of the requested data.
system.tol3bus.pwrStateResidencyTicks::UNDEFINED 183905472000                       # Cumulative time (in ticks) in various power states
system.tol3bus.trans_dist::ReadResp             58854                       # Transaction distribution
system.tol3bus.trans_dist::WritebackDirty        69152                       # Transaction distribution
system.tol3bus.trans_dist::CleanEvict              99                       # Transaction distribution
system.tol3bus.trans_dist::UpgradeReq               1                       # Transaction distribution
system.tol3bus.trans_dist::UpgradeResp              1                       # Transaction distribution
system.tol3bus.trans_dist::ReadExReq            12712                       # Transaction distribution
system.tol3bus.trans_dist::ReadExResp           12712                       # Transaction distribution
system.tol3bus.trans_dist::ReadSharedReq        58854                       # Transaction distribution
system.tol3bus.pkt_count_system.l2.mem_side::system.l3.cpu_side       212385                       # Packet count per connected master and slave (bytes)
system.tol3bus.pkt_size_system.l2.mem_side::system.l3.cpu_side      9005952                       # Cumulative packet size per connected master and slave (bytes)
system.tol3bus.snoops                               0                       # Total snoops (count)
system.tol3bus.snoopTraffic                         0                       # Total snoop traffic (bytes)
system.tol3bus.snoop_fanout::samples            71567                       # Request fanout histogram
system.tol3bus.snoop_fanout::mean                   0                       # Request fanout histogram
system.tol3bus.snoop_fanout::stdev                  0                       # Request fanout histogram
system.tol3bus.snoop_fanout::underflows             0      0.00%      0.00% # Request fanout histogram
system.tol3bus.snoop_fanout::0                  71567    100.00%    100.00% # Request fanout histogram
system.tol3bus.snoop_fanout::1                      0      0.00%    100.00% # Request fanout histogram
system.tol3bus.snoop_fanout::overflows              0      0.00%    100.00% # Request fanout histogram
system.tol3bus.snoop_fanout::min_value              0                       # Request fanout histogram
system.tol3bus.snoop_fanout::max_value              0                       # Request fanout histogram
system.tol3bus.snoop_fanout::total              71567                       # Request fanout histogram
system.tol3bus.reqLayer0.occupancy          139561000                       # Layer occupancy (ticks)
system.tol3bus.reqLayer0.utilization              0.1                       # Layer utilization (%)
system.tol3bus.respLayer0.occupancy         107349500                       # Layer occupancy (ticks)
system.tol3bus.respLayer0.utilization             0.1                       # Layer utilization (%)

---------- End Simulation Statistics   ----------
